pcf
* control data
             restart          estimation
        10         4         1         0         2
         1         1              single               point         1
   1.000000E+01   2.000000E+00   3.000000E-01   1.000000E-02         8
   1.000000E+01   1.000000E+01   1.000000E-03
   1.000000E-01
        -1   1.000000E-02         3         3   1.000000E-02         3
         1         1         1
* singular value decomposition
         1
  10000000    1.000000E-06
1
* parameter groups
decvar                 absolute              1.0000000000E+00      0.0 switch                1.0000000000E+00      parabolic             1.0000000000E-05      5.0000000000E-01      smaller              
* parameter data
x1                    none                  relative              1.0000000000E+00      -1.0000000000E+01     1.0000000000E+01      decvar                1.0000000000E+00      0.0000000000E+00      1          
x2                    none                  relative              1.0000000000E+00      -1.0000000000E+01     1.0000000000E+01      decvar                1.0000000000E+00      0.0000000000E+00      1          
x3                    none                  relative              1.0000000000E+00      -1.0000000000E+01     1.0000000000E+01      decvar                1.0000000000E+00      0.0000000000E+00      1          
x4                    none                  relative              1.0000000000E+00      -1.0000000000E+01     1.0000000000E+01      decvar                1.0000000000E+00      0.0000000000E+00      1          
x5                    none                  relative              1.0000000000E+00      -1.0000000000E+01     1.0000000000E+01      decvar                1.0000000000E+00      0.0000000000E+00      1          
x6                    none                  relative              1.0000000000E+00      -1.0000000000E+01     1.0000000000E+01      decvar                1.0000000000E+00      0.0000000000E+00      1          
x7                    none                  relative              1.0000000000E+00      -1.0000000000E+01     1.0000000000E+01      decvar                1.0000000000E+00      0.0000000000E+00      1          
x8                    none                  relative              1.0000000000E+00      -1.0000000000E+01     1.0000000000E+01      decvar                1.0000000000E+00      0.0000000000E+00      1          
x9                    none                  relative              1.0000000000E+00      -1.0000000000E+01     1.0000000000E+01      decvar                1.0000000000E+00      0.0000000000E+00      1          
x10                   none                  relative              1.0000000000E+00      -1.0000000000E+01     1.0000000000E+01      decvar                1.0000000000E+00      0.0000000000E+00      1          
* observation groups
l_obj                
obs                  
* observation data
func                  0.0000000000E+00      1.0000000000E+00      l_obj                
func_sd               0.0000000000E+00      1.0000000000E+00      obs                  
func_var              0.0000000000E+00      1.0000000000E+00      obs                  
ei                    0.0000000000E+00      1.0000000000E+00      obs                                   
* model command line
python forward_pbrun.py
* model input/output
dv_tpl.dat dv.dat
output.ins output.dat
++opt_dec_var_groups(decvar)
++mou_objectives(func)
++panther_agent_freeze_on_fail(true)
++mou_save_population_every(20)
++mou_generator(pso)
++mou_pso_alpha(2)
++mou_dv_population_file(infill.dv_pop.csv)
